data_findsym-STRUC-1
# This file was generated by FINDSYM    
# Harold T. Stokes, Branton J. Campbell, Dorian M. Hatch
# Brigham Young University, Provo, Utah, USA
                                        
data_findsym-output                     
                                        
_symmetry_space_group_name_H-M 'P 21/m 2/m 2/a'
_symmetry_Int_Tables_number 51          
                                        
_cell_length_a       8.86600            
_cell_length_b       8.60100            
_cell_length_c      12.67600            
_cell_angle_alpha   90.00000            
_cell_angle_beta    90.00000            
_cell_angle_gamma   90.00000            
                                        
loop_                                   
_space_group_symop_operation_xyz        
x,y,z                                   
x+1/2,-y,-z                             
-x,y,-z                                 
-x+1/2,-y,z                             
-x,-y,-z                                
-x+1/2,y,z                              
x,-y,z                                  
x+1/2,y,-z                              
                                        
loop_                                   
_atom_site_label                        
_atom_site_type_symbol                  
_atom_site_fract_x                      
_atom_site_fract_y                      
_atom_site_fract_z                      
_atom_site_occupancy                    
  Cs   Cs   0.2500   0.2975   0.0254   1.0000
  Sn   Sn  -0.1285   0.0000   0.0194   1.0000
   I    I   0.0984  -0.2153   0.3558   1.0000
   I    I  -0.4127   0.0000   0.1928   1.0000
data_findsym-STRUC-2
# This file was generated by FINDSYM    
# Harold T. Stokes, Branton J. Campbell, Dorian M. Hatch
# Brigham Young University, Provo, Utah, USA
                                        
data_findsym-output                     
                                        
_symmetry_space_group_name_H-M 'P 6/m 2/m 2/m'
_symmetry_Int_Tables_number 191         
                                        
_cell_length_a       9.20800            
_cell_length_b       9.20800            
_cell_length_c       6.58250            
_cell_angle_alpha   90.00000            
_cell_angle_beta    90.00000            
_cell_angle_gamma  120.00000            
                                        
loop_                                   
_space_group_symop_operation_xyz        
x,y,z                                   
x-y,x,z                                 
-y,x-y,z                                
-x,-y,z                                 
-x+y,-x,z                               
y,-x+y,z                                
x-y,-y,-z                               
x,x-y,-z                                
y,x,-z                                  
-x+y,y,-z                               
-x,-x+y,-z                              
-y,-x,-z                                
-x,-y,-z                                
-x+y,-x,-z                              
y,-x+y,-z                               
x,y,-z                                  
x-y,x,-z                                
-y,x-y,-z                               
-x+y,y,z                                
-x,-x+y,z                               
-y,-x,z                                 
x-y,-y,z                                
x,x-y,z                                 
y,x,z                                   
                                        
loop_                                   
_atom_site_label                        
_atom_site_type_symbol                  
_atom_site_fract_x                      
_atom_site_fract_y                      
_atom_site_fract_z                      
_atom_site_occupancy                    
  Cs   Cs   0.3333   0.6667   0.0000   1.0000
  Sn   Sn   0.0000   0.0000   0.3182   1.0000
   I    I  -0.4568  -0.9136   0.0000   1.0000
data_findsym-STRUC-3
# This file was generated by FINDSYM    
# Harold T. Stokes, Branton J. Campbell, Dorian M. Hatch
# Brigham Young University, Provo, Utah, USA
                                        
data_findsym-output                     
                                        
_symmetry_space_group_name_H-M 'P 4/m 2/m 2/m'
_symmetry_Int_Tables_number 123         
                                        
_cell_length_a       6.20628            
_cell_length_b       6.20628            
_cell_length_c       6.27400            
_cell_angle_alpha   90.00000            
_cell_angle_beta    90.00000            
_cell_angle_gamma   90.00000            
                                        
loop_                                   
_space_group_symop_operation_xyz        
x,y,z                                   
x,-y,-z                                 
-x,y,-z                                 
-x,-y,z                                 
-y,-x,-z                                
-y,x,z                                  
y,-x,z                                  
y,x,-z                                  
-x,-y,-z                                
-x,y,z                                  
x,-y,z                                  
x,y,-z                                  
y,x,z                                   
y,-x,-z                                 
-y,x,-z                                 
-y,-x,z                                 
                                        
loop_                                   
_atom_site_label                        
_atom_site_type_symbol                  
_atom_site_fract_x                      
_atom_site_fract_y                      
_atom_site_fract_z                      
_atom_site_occupancy                    
  Cs   Cs   0.0000   0.0000   0.5000   1.0000
  Sn   Sn   0.0000   0.0000   0.0000   1.0000
   I    I   0.0000   0.5000   0.5000   1.0000
   I    I   0.5000   0.5000   0.0000   1.0000
data_findsym-STRUC-4
# This file was generated by FINDSYM    
# Harold T. Stokes, Branton J. Campbell, Dorian M. Hatch
# Brigham Young University, Provo, Utah, USA
                                        
data_findsym-output                     
                                        
_symmetry_space_group_name_H-M 'P 42/m 2/m 2/c'
_symmetry_Int_Tables_number 131         
                                        
_cell_length_a       8.77700            
_cell_length_b       8.77700            
_cell_length_c      12.54800            
_cell_angle_alpha   90.00000            
_cell_angle_beta    90.00000            
_cell_angle_gamma   90.00000            
                                        
loop_                                   
_space_group_symop_operation_xyz        
x,y,z                                   
x,-y,-z                                 
-x,y,-z                                 
-x,-y,z                                 
-y,-x,-z+1/2                            
-y,x,z+1/2                              
y,-x,z+1/2                              
y,x,-z+1/2                              
-x,-y,-z                                
-x,y,z                                  
x,-y,z                                  
x,y,-z                                  
y,x,z+1/2                               
y,-x,-z+1/2                             
-y,x,-z+1/2                             
-y,-x,z+1/2                             
                                        
loop_                                   
_atom_site_label                        
_atom_site_type_symbol                  
_atom_site_fract_x                      
_atom_site_fract_y                      
_atom_site_fract_z                      
_atom_site_occupancy                    
  Cs   Cs   0.0000   0.5000  -0.1408   1.0000
  Sn   Sn   0.1829   0.5000   0.5000   1.0000
   I    I   0.0000  -0.2825  -0.3550   1.0000
   I    I  -0.1936   0.0000   0.5000   1.0000
