# This file was generated by FINDSYM    
# Harold T. Stokes, Branton J. Campbell, Dorian M. Hatch
# Brigham Young University, Provo, Utah, USA
                                        
data_findsym-output                     
                                        
_symmetry_space_group_name_H-M 'P 42/m 2/m 2/c'
_symmetry_Int_Tables_number 131         
                                        
_cell_length_a       8.77700            
_cell_length_b       8.77700            
_cell_length_c      12.54800            
_cell_angle_alpha   90.00000            
_cell_angle_beta    90.00000            
_cell_angle_gamma   90.00000            
                                        
loop_                                   
_space_group_symop_operation_xyz        
x,y,z                                   
x,-y,-z                                 
-x,y,-z                                 
-x,-y,z                                 
-y,-x,-z+1/2                            
-y,x,z+1/2                              
y,-x,z+1/2                              
y,x,-z+1/2                              
-x,-y,-z                                
-x,y,z                                  
x,-y,z                                  
x,y,-z                                  
y,x,z+1/2                               
y,-x,-z+1/2                             
-y,x,-z+1/2                             
-y,-x,z+1/2                             
                                        
loop_                                   
_atom_site_label                        
_atom_site_type_symbol                  
_atom_site_fract_x                      
_atom_site_fract_y                      
_atom_site_fract_z                      
_atom_site_occupancy                    
  Cs   Cs   0.0000   0.5000  -0.1408   1.0000
  Sn   Sn   0.1829   0.5000   0.5000   1.0000
   I    I   0.0000  -0.2825  -0.3550   1.0000
   I    I  -0.1936   0.0000   0.5000   1.0000
